12

  C    0.0000000   -1.2576670    0.8566385
  C   -0.0000000    0.1138622    1.5162230
  C    0.0000000    1.3711467    0.6603277
  C   -0.0000000    1.2573166   -0.8568155
  C    0.0000000   -0.1133858   -1.5162902
  H   -0.0000000   -2.1746255    1.4808148
  H    0.0000000   -2.3705491   -1.1416836
  H   -0.0000000   -0.1976110   -2.6221432
  H    0.0000000    2.1746706   -1.4811322
  H   -0.0000000    2.3713089    1.1409480
  H    0.0000000    0.1960880    2.6225232
