12

C    1.3174843    0.7606499    0.0000000
C    1.3174843   -0.7606499    0.0000000
C   -0.0000000   -1.5212999   -0.0000000
C   -1.3174843   -0.7606499   -0.0000000
C   -1.3174843    0.7606499   -0.0000000
C    0.0000000    1.5212999    0.0000000
H    2.2782484   -1.3153473    0.0000000
H    2.2782484    1.3153473    0.0000000
H    0.0000000    2.6306947    0.0000000
H   -2.2782484    1.3153473   -0.0000000
H   -2.2782484   -1.3153473   -0.0000000
H   -0.0000000   -2.6306947   -0.00000000
